LTspice 24.1.4 for Windows
Circuit: D:\Facultate\Max\Proiect\Hardware\InstrumentationAmp.net
Start Time: Sun Mar 30 20:25:06 2025
solver = Normal
Maximum thread count: 12
tnom = 27
temp = 27
method = trap
Direct Newton iteration for .op point succeeded.
Total elapsed time: 0.658 seconds.

Files loaded:
D:\Facultate\Max\Proiect\Hardware\InstrumentationAmp.net
C:\Users\Zighi\AppData\Local\LTspice\lib\sub\ADI.lib
C:\Users\Zighi\AppData\Local\LTspice\lib\sub\ADTL084.lib

